!AUTHOR:  Aleksandar Ribnishki
!Based on thermo file from XJTUNO-2021

THERMO
   300.000  1000.000  5000.000
AR                G 5/97AR  1  0    0      0G   200.000  6000.00  1000.00      1
 2.50000000E+00 0.00000000E+00 0.00000000E+00 0.00000000E+00 0.00000000E+00    2
-7.45375000E+02 4.37967491E+00 2.50000000E+00 0.00000000E+00 0.00000000E+00    3
 0.00000000E+00 0.00000000E+00-7.45375000E+02 4.37967491E+00                   4
N2                G 8/02N   2    0    0    0G   200.000  6000.00  1000.00      1
 2.95257637E+00 1.39690040E-03-4.92631603E-07 7.86010195E-11-4.60755204E-15    2
-9.23948688E+02 5.87188762E+00 3.53100528E+00-1.23660988E-04-5.02999433E-07    3
 2.43530612E-09-1.40881235E-12-1.04697628E+03 2.96747038E+00                   4
HE                G 5/97HE 1    0    0    0 G   200.000  6000.00  1000.00      1
 2.50000000E+00 0.00000000E+00 0.00000000E+00 0.00000000E+00 0.00000000E+00    2
-7.45375000E+02 9.28723974E-01 2.50000000E+00 0.00000000E+00 0.00000000E+00    3
 0.00000000E+00 0.00000000E+00-7.45375000E+02 9.28723974E-01                   4
H2                TPIS78H   2    0    0    0G   200.000  6000.00  1000.00      1
 2.93286575E+00 8.26608026E-04-1.46402364E-07 1.54100414E-11-6.88804800E-16    2
-8.13065581E+02-1.02432865E+00 2.34433112E+00 7.98052075E-03-1.94781510E-05    3
 2.01572094E-08-7.37611761E-12-9.17935173E+02 6.83010238E-01                   4
H                 L 6/94H   1    0    0    0G   200.000  6000.00  1000.00      1
 0.25000000E+01 0.00000000E+00 0.00000000E+00 0.00000000E+00 0.00000000E+00    2
 0.25473660E+05-0.44668285E+00 0.25000000E+01 0.00000000E+00 0.00000000E+00    3
 0.00000000E+00 0.00000000E+00 0.25473660E+05-0.44668285E+00                   4
O2                RUS 89O   2    0    0    0G   200.000  6000.00  1000.00      1
 3.66096065E+00 6.56365811E-04-1.41149627E-07 2.05797935E-11-1.29913436E-15    2
-1.21597718E+03 3.41536279E+00 3.78245636E+00-2.99673416E-03 9.84730201E-06    3
-9.68129509E-09 3.24372837E-12-1.06394356E+03 3.65767573E+00                   4
O                 L 1/90O   1    0    0    0G   200.000  6000.00  1000.00      1
 2.54363697E+00-2.73162486E-05-4.19029520E-09 4.95481845E-12-4.79553694E-16    2
 2.92260120E+04 4.92229457E+00 3.16826710E+00-3.27931884E-03 6.64306396E-06    3
-6.12806624E-09 2.11265971E-12 2.91222592E+04 2.05193346E+00                   4
H2O                     H   2O   1          G    200.00   6000.00 1000.00      1
 2.67703890E+00 2.97318160E-03-7.73768890E-07 9.44335140E-11-4.26899910E-15    2
-2.98858940E+04 6.88255000E+00 4.19863520E+00-2.03640170E-03 6.52034160E-06    3
-5.48792690E-09 1.77196800E-12-3.02937260E+04-8.49009010E-01                   4
OH                IU3/03O   1 H  1    0    0G   200.000  6000.00  1000.00      1
 2.83853033E+00 1.10741289E-03-2.94000209E-07 4.20698729E-11-2.42289890E-15    2
 3.69780808E+03 5.84494652E+00 3.99198424E+00-2.40106655E-03 4.61664033E-06    3
-3.87916306E-09 1.36319502E-12 3.36889836E+03-1.03998477E-01                   4
OHV                     H   1O   1          G   300.000  5000.000  1710.000    1 ! FROM NUIGMech 1.3
 2.85376040e+00 1.02994334e-03-2.32666477e-07 1.93750704e-11-3.15759847e-16    2
 5.03225473e+04 5.76240468e+00 3.41896226e+00 3.19255801e-04-3.08292717e-07    3
 3.64407494e-10-1.00195479e-13 5.00756946e+04 2.51917016e+00                   4
H2O2              T 8/03H   2O   2    0    0G   200.000  6000.00  1000.00      1
 4.57977305E+00 4.05326003E-03-1.29844730E-06 1.98211400E-10-1.13968792E-14    2
-1.80071775E+04 6.64970694E-01 4.31515149E+00-8.47390622E-04 1.76404323E-05    3
-2.26762944E-08 9.08950158E-12-1.77067437E+04 3.27373319E+00                   4
HO2               T 1/09H   1O   2    0    0G   200.000  5000.00  1000.00      1
 4.17228741E+00 1.88117627E-03-3.46277286E-07 1.94657549E-11 1.76256905E-16    2
 3.10206839E+01 2.95767672E+00 4.30179807E+00-4.74912097E-03 2.11582905E-05    3
-2.42763914E-08 9.29225225E-12 2.64018485E+02 3.71666220E+00                   4
N                       N   1               G   200.000  6000.000  1000.000    1 ! FROM NUIGMech 1.3
 2.41604245e+00 1.74663766e-04-1.18864562e-07 3.01850054e-11-2.03260159e-15    2
 5.61051512e+04 4.64905706e+00 2.49976643e+00 5.02149594e-07 1.93091211e-09    3
-4.94632629e-12 2.74089506e-15 5.60760710e+04 4.19499326e+00                   4
NO                      N   1O   1          G   298.150  3000.000 1000.00      1
 2.79462839E+00 2.12260586E-03-1.11936971E-06 2.79521018E-10-2.68625363E-14    2
 1.00019069E+04 8.88322674E+00 4.15036687E+00-4.08890008E-03 9.38071726E-06    3
-7.50908901E-09 2.11742798E-12 9.77018679E+03 2.53971032E+00                   4
NO2                     N   1O   2          G   298.150  3000.000  1000.000    1 ! FROM NUIGMech 1.3
 3.65239279e+00 4.71632310e-03-2.74591748e-06 7.45382834e-10-7.63891108e-14    2
 2.57216137e+03 6.52683440e+00 3.39100918e+00 2.62448348e-03 5.09790306e-06    3
-7.62120493e-09 2.79960135e-12 2.78130679e+03 8.57220275e+00                   4
N2O                     N   2O   1          G   298.150  3000.000 1000.00      1
 3.61316907E+00 5.15970465E-03-2.97227625E-06 8.00505298E-10-8.26331952E-14    2
 8.60075126E+03 4.26880857E+00 2.49126356E+00 9.16224976E-03-8.24847853E-06    3
 3.83289657E-09-7.19461784E-13 8.84938621E+03 9.80262335E+00                   4
NH3                     H   3N   1          G    298.15   3000.00 1000.00      1 ! FROM NUIGMech 1.3
 1.07096958E+00 8.75466951E-03-3.33525419E-06 4.72015791E-10-1.13562571E-14    2
-5.77168689E+03 1.49517392E+01 3.26650510E+00 3.05892867E-03 5.78755223E-07    3
 9.49077412E-10-9.02221969E-13-6.36511405E+03 3.58794921E+00                   4
HNO                     H   1N   1O   1     G   298.150  3000.000 1000.00      1
 2.58819802E+00 4.87708822E-03-2.29243315E-06 5.82214028E-10-5.94811743E-14    2
 1.20213574E+04 1.04315796E+01 4.51988078E+00-5.42507623E-03 1.70239636E-05    3
-1.48708172E-08 4.44763498E-12 1.17637925E+04 1.75618526E+00                   4
HON                     H   1O   1N   1     G    200.00   6000.00 1000.00      1 ! FROM NUIGMech 1.3
 4.12044656E+00 2.28738122E-03-7.14685362E-07 1.03332384E-10-5.70484100E-15    2
 2.43643963E+04 3.38857665E+00 4.15272450E+00-3.87826402E-03 2.05476031E-05    3
-2.49049483E-08 9.87365462E-12 2.46037098E+04 4.56636321E+00                   4
HONO                    H   1N   1O   2     G   298.150  3000.000 1000.00      1 !YJZ HONO=tHONO
 4.19966671E+00 5.94217338E-03-2.95404834E-06 7.19846187E-10-6.74909061E-14    2
-1.08122769E+04 5.08809833E+00 3.49106617E+00 6.81116875E-03-1.30943120E-06    3
-2.34197204E-09 1.18931535E-12-1.05722865E+04 8.99803804E+00                   4
H2NO                    H   2N   1O   1     G   298.150  3000.000 1000.00      1
 3.36485636E+00 6.13307432E-03-2.48863886E-06 4.83818467E-10-3.63995936E-14    2
 6.62654717E+03 6.75312730E+00 3.93370869E+00 2.21175605E-03 5.86220201E-06    3
-6.72931776E-09 2.17836171E-12 6.59507215E+03 4.42022091E+00                   4
NNH                     H   1N   2          G    298.15   3000.00 1000.00      1
 2.90981142E+00 4.44718211E-03-1.82919152E-06 3.64004342E-10-3.13273352E-14    2
 2.92696472E+04 9.11653812E+00 4.09254871E+00-2.37173287E-03 1.15311297E-05    3
-1.06308423E-08 3.23937580E-12 2.91374980E+04 3.93250587E+00                   4
NH2                     H   2N   1          G   298.150  3000.000 1000.00      1
 2.62839610E+00 3.44379888E-03-1.08606365E-06 1.50714038E-10-4.59423280E-15    2
 2.15909586E+04 7.65372613E+00 3.97883538E+00-5.13888088E-04 2.68436156E-06    3
-9.18832600E-10-9.82251152E-14 2.12486673E+04 7.77619668E-01                   4
NH                      H   1N   1          G   298.150  3000.000 1000.00      1
 2.95100955E+00 9.09994439E-04-8.35582439E-08-5.17312027E-11 1.13981436E-14    2
 4.19707045E+04 4.83056694E+00 3.44697209E+00 5.57847818E-04-2.00289360E-06    3
 2.85952922E-09-1.12434284E-12 4.17899268E+04 2.02990852E+00                   4
HNOH                    H   2O   1N   1     G    200.00   6000.00 1000.00      1 ! FROM NUIGMech 1.3
 3.98321933E+00 4.88846374E-03-1.65086637E-06 2.55371446E-10-1.48308561E-14    2
 1.05780106E+04 3.62582838E+00 3.95608248E+00-3.02611020E-03 2.56874396E-05    3
-3.15645120E-08 1.24084574E-11 1.09199790E+04 5.55950983E+00                   4
NO3                     N   1O   3          G   298.150  3000.000  1000.000    1 ! Bugler_2016
 6.38293838e+00 5.42422503e-03-3.34397780e-06 9.48445417e-10-1.01961714e-13    2
 6.35473962e+03-6.30266486e+00 3.09446759e+00 1.51014573e-02-1.26448498e-05    3
 3.67237581e-09 8.62184172e-14 7.18626632e+03 1.04314685e+01                   4
HNO3                    H   1O   3N   1     G    200.00   6000.00 1000.00      1 ! FROM NUIGMech 1.3
 8.03061257E+00 4.46368336E-03-1.72272779E-06 2.91611606E-10-1.80487362E-14    2
-1.93033764E+04-1.62543421E+01 1.55975056E+00 2.01502169E-02-1.15217296E-05    3
-2.31891230E-09 3.17580552E-12-1.73955871E+04 1.77294677E+01                   4
N2H2                    H   2N   2          G    200.00   6000.00 1000.00      1
 1.31115117E+00 9.00187208E-03-3.14911824E-06 4.81449581E-10-2.71897891E-14    2
 2.33863341E+04 1.64091067E+01 4.91066031E+00-1.07791880E-02 3.86516489E-05    3
-3.86501698E-08 1.34852134E-11 2.28241901E+04 9.10273396E-02                   4
N2H3                    H   3N   2          G   298.150  3000.000 1000.00      1
 3.20302281E+00 7.99162955E-03-3.10892955E-06 5.91433018E-10-4.34549709E-14    2
 2.58689598E+04 8.45902214E+00 3.80271862E+00 5.52764141E-03 6.84860021E-07    3
-2.00296493E-09 6.21445742E-13 2.57522809E+04 5.58213774E+00                   4
N2H4                    H   4N   2          G   298.150  3000.000 1000.00      1
 3.21893892E+00 1.23204128E-02-5.44372150E-06 1.22223350E-09-1.10736520E-13    2
 1.05061274E+04 6.57037382E+00 9.42542945E-01 2.13488271E-02-1.88705886E-05    3
 1.00963087E-08-2.30996292E-12 1.09652651E+04 1.75719609E+01                   4
H2NN                    H   2N   2          G   298.150  3000.000 1000.00      1
 1.46257631E+00 1.01013888E-02-5.16789506E-06 1.27606779E-09-1.22332550E-13    2
 3.55918510E+04 1.51070949E+01 3.87707453E+00-2.65244519E-03 1.86066175E-05    3
-1.76694483E-08 5.38800676E-12 3.52637434E+04 4.23249694E+00                   4
NH2OH                   H   3O   1N   1     G    200.00   6000.00 1000.00      1 ! FROM NUIGMech 1.3
 3.88112502E+00 8.15708448E-03-2.82615576E-06 4.37930933E-10-2.52724604E-14    2
-6.86018419E+03 3.79156136E+00 3.21016092E+00 6.19671676E-03 1.10594948E-05    3
-1.96668262E-08 8.82516590E-12-6.58148481E+03 7.93293571E+00                   4
HNO2                    H   1N   1O   2     G   298.150  3000.000 1000.00      1
 2.71886798E+00 9.23249468E-03-5.00922160E-06 1.30155189E-09-1.30503734E-13    2
-6.61949139E+03 1.03430537E+01 2.86816457E+00 4.08036347E-03 9.55139253E-06    3
-1.29604691E-08 4.57373772E-12-6.42160346E+03 1.07615202E+01                   4
t-ONNH                  H   1N   2O   1     G   300.000  4000.000  1000.000    1 !Meng, Q., Lei, L., Lee, J., & Burke, M. P. (2023). On the role of HNNO in NOx formation. Proceedings of the Combustion Institute.
 4.33545690e+00 5.93097880e-03-2.65932640e-06 5.59787550e-10-4.50945980e-14    2
 2.26293340e+04 3.05886820e+00 2.20617370e+00 1.10153550e-02-6.36109190e-06    3
 1.22732170e-09 3.40434270e-14 2.32676400e+04 1.42916460e+01                   4
c-ONNH                  H   1N   2O   1     G   300.000  4000.000  1000.000    1 !Meng, Q., Lei, L., Lee, J., & Burke, M. P. (2023). On the role of HNNO in NOx formation. Proceedings of the Combustion Institute.
 4.42623830e+00 5.93706560e-03-2.68956900e-06 5.69715990e-10-4.60768050e-14    2
 2.56792600e+04 2.70158780e+00 2.22713520e+00 1.18382350e-02-8.60298140e-06    3
 3.48944520e-09-7.54459850e-13 2.63106600e+04 1.41518430e+01                   4
ONHN                    H   1N   2O   1     G   300.000  4000.000  1000.000    1 !Meng, Q., Lei, L., Lee, J., & Burke, M. P. (2023). On the role of HNNO in NOx formation. Proceedings of the Combustion Institute.
 4.24542000e+00 6.26181670e-03-2.87972550e-06 6.16597350e-10-5.02619020e-14    2
 3.42046200e+04 3.73314540e+00 2.41194860e+00 9.37329300e-03-2.53892520e-06    3
-2.06554700e-09 1.01307710e-12 3.48266210e+04 1.37446530e+01                   4
H2NNO2                  H   2N   2O   2     G   300.000  4000.000  1000.000    1 !Meng, Q., Lei, L., Lee, J., & Burke, M. P. (2023). On the role of HNNO in NOx formation. Proceedings of the Combustion Institute.
 6.12753110e+00 9.94876810e-03-4.34434280e-06 8.97876740e-10-7.14012450e-14    2
-1.46303650e+03-6.15868740e+00 3.28592470e-01 2.91133220e-02-2.94541460e-05    3
 1.68195760e-08-4.24891260e-12-2.13629670e+01 2.30264540e+01                   4
t-HNN(O)OH              H   2N   2O   2     G   300.000  4000.000  1000.000    1 !Meng, Q., Lei, L., Lee, J., & Burke, M. P. (2023). On the role of HNNO in NOx formation. Proceedings of the Combustion Institute.
 6.45850650e+00 9.55194370e-03-4.15271650e-06 8.55715180e-10-6.79066950e-14    2
 7.54819440e+03-7.97534210e+00-1.31976750e-01 3.24068340e-02-3.56638440e-05    3
 2.16752310e-08-5.64070280e-12 9.12462170e+03 2.49041370e+01                   4
c-HNN(O)OH              H   2N   2O   2     G   300.000  4000.000  1000.000    1 !Meng, Q., Lei, L., Lee, J., & Burke, M. P. (2023). On the role of HNNO in NOx formation. Proceedings of the Combustion Institute.
 6.66040280e+00 9.28593550e-03-4.01607400e-06 8.24368940e-10-6.52317950e-14    2
 2.86166980e+03-8.87034690e+00-3.87692140e-02 3.32056340e-02-3.80708790e-05    3
 2.39715710e-08-6.37815570e-12 4.42837840e+03 2.43760950e+01                   4
END