!
! Authors: Aleksandar Ribnishki
! H2/O2/NOx/NH3 mechanism
!


ELEMENTS
H O N AR HE
END
!------------------------------------------------------------------------------------------------------------------------------------------------------------------------------
SPECIES
O               H               N               AR            HE
N2              O2              H2              OH            OHV
HO2             H2O             H2O2            N2O           NO
NO2             NO3             NH3             NH2           NH
N2H4            N2H3            N2H2            H2NN          NNH
HNO             HON             H2NO            HNOH          NH2OH
HONO            HNO2            HNO3            t-ONNH        c-ONNH	!HNO3 = HONO2 
ONHN            H2NNO2          t-HNN(O)OH      c-HNN(O)OH              
END
!------------------------------------------------------------------------------------------------------------------------------------------------------------------------------
REACTIONS
!------------------------------------------------------------------------------------------------------------------------------------------------------------------------------
!   H2/O2 subset
!------------------------------------------------------------------------------------------------------------------------------------------------------------------------------
H+O2=O+OH                              1.01614952E+14    0.00000000E+00    1.52860000E+04 !Ref: Hong et al., 2011 - https://doi.org/10.1016/j.proci.2010.05.101, UF 1.03, 1100 - 3370K

H2+O=H+OH                              6.18226904E+04    2.67000000E+00    6.29200000E+03 !Ref: Sutherland et al., 1988 - https://doi.org/10.1016/S0082-0784(88)80325-4, UF 1.3, 297 - 2495K

H2+OH=H+H2O                            3.86937957E+13    0.00000000E+00    6.99000000E+03 !Ref: Lam, Davidson, Hanson, 2013 - https://doi.org/10.1002/kin.20771, UF 1.17, 972 - 1228K

OH+OH=H2O+O                            2.48700000E+03    2.75000000E+00   -2.31000000E+03 !Ref: Zhang et al., 2020 - https://doi.org/10.1021/acs.jpca.0c00624, UF 1.15, 220 - 2384K

H2+M=H+H+M                             4.57700000E+19   -1.40000000E+00    1.04400000E+05 !Ref: Tsang and Hampson, 1986 - https://doi.org/10.1063/1.555759, UF 3, 600 - 2000K

H2/ 2.500 / H2O/ 12.000/ HE/ 0.830/ O2/ 0.000/

O+O+M=O2+M                             6.16500000E+15   -5.00000000E-01    0.00000000E+00 !Ref: Tsang and Hampson, 1986 - https://doi.org/10.1063/1.555759, UF 3 assigned
AR/ 0.830/ H2/ 2.500/ H2O/ 12.000/ HE/ 0.830/

O+H+M=OH+M                             4.71400000E+18   -1.00000000E+00    0.00000000E+00 !Ref: Tsang and Hampson, 1986 - https://doi.org/10.1063/1.555759, UF 10 at high temps, 300 - 2500K
AR/ 0.750/ H2/ 2.500/ H2O/ 12.000/ HE/ 0.750/ O2 /0.000/

H+OH(+M)=H2O(+M)                       2.50000000E+13    2.34000000E-01   -1.14000000E+02 !Ref: Sellevag, Georgievskii, Miller, 2008 - https://doi.org/10.1021/jp711800z, UF 3 (theory), 300 - 3000K
     LOW  /  4.53000000E+21  -1.81000000E+00  4.92000000E+02 /
     TROE/   7.30000000E-01  1.00000000E-30  1.00000000E+30  1.00000000E+30 /
AR/ 0.400/ H2/ 1.500/ H2O/ 13.000/ HE/ 0.570/ N2/ 1.0000/ O2/ 1.000/

H+O2(+M)=HO2(+M)                       4.66000000E+12    4.40000000E-01    0.00000000E+00 ! Adopted from Zhu et al., 2024 - https://doi.org/10.1016/j.combustflame.2023.113239 Ref: Troe, 2000 / PCCP Fernandes, 2008 - https://doi.org/10.1039/B804553D, UF 1.2 from Konnov
     LOW  /  4.16552465E+19  -1.40000000E+00  -1.80537000E+02 /                         !LPL 202210 new fit by Snehasish Panigrahy UF 1.2 from Konnov (old fit, carrying it over)
     TROE/   5.00000000E-01  1.00000000E+00  1.00000000E+10  1.00000000E+30 /
AR/ 0.000/ H2/ 2.000/ H2O/ 17.600/ HE/ 0.570/ N2/ 0.000/ O2/ 1.000/

H+O2(+N2)=HO2(+N2)                     4.66000000E+12    4.40000000E-01    0.00000000E+00 ! Adopted from Zhu et al., 2024 - https://doi.org/10.1016/j.combustflame.2023.113239
     LOW  /  1.94395381E+20  -1.55680000E+00  2.53860000E+02 /                            
     TROE/   5.00000000E-01  1.00000000E+00  1.00000000E+10  1.00000000E+30 /

H+O2+AR=HO2+AR                         2.90921181E+20   -1.66310000E+00    1.49349060E+03 ! Adopted from Zhu et al., 2024 - https://doi.org/10.1016/j.combustflame.2023.113239
PLOG /	1.00000000E-02                        6.94506942E+18   -1.19120000E+00    1.14078000E+01 /
PLOG /	1.00000000E-01                        6.78700622E+18   -1.18930000E+00    2.35054000E+01 /
PLOG /	1.00000000E+00                        6.89319930E+18   -1.19250000E+00    6.13437000E+01 /
PLOG /	5.00000000E+00                        8.12415600E+18   -1.21410000E+00    1.48419000E+02 /
PLOG /	1.00000000E+01                        9.86384231E+18   -1.23890000E+00    2.28992900E+02 /
PLOG /	2.00000000E+01                        1.37610492E+19   -1.28080000E+00    3.58970900E+02 /
PLOG /	3.00000000E+01                        2.67114589E+20   -1.67880000E+00    6.10486200E+02 /
PLOG /	4.00000000E+01                        3.88835665E+20   -1.72520000E+00    7.46275400E+02 /
PLOG /	5.00000000E+01                        5.12214663E+20   -1.75890000E+00    8.57089000E+02 /
PLOG /	1.00000000E+02                        8.72712484E+20   -1.81950000E+00    1.19198760E+03 /
PLOG /	3.00000000E+02                        2.90921181E+20   -1.66310000E+00    1.49349060E+03 /

HO2+H=H2+O2                            4.47531113E+06    2.09000000E+00   -1.45100000E+03 !Ref: Michael et al., 2000 - https://doi.org/10.1016/S0082-0784(00)80543-3, UF 2, 1662 - 2097K reverse reaction studied. 0.75x in Burke,2012
HO2+H=OH+OH                            1.41580000E+14    0.00000000E+00    2.95000000E+02 !Ref: Mueller et al., 1999 - https://doi.org/10.1002/(SICI)1097-4601(1999)31:2%3C113::AID-KIN5%3E3.0.CO;2-0, UF 2, 850 - 1040K

HO2+O=OH+O2                            5.25709897E+10    1.00000000E+00   -7.23900000E+02 !Ref: Fernandez-Ramos & Varandas, 2002 - https://doi.org/10.1021/jp014120k, UF 3, 150 - 1500K

HO2+OH=H2O+O2                          1.74190606E+20   -2.49000000E+00    5.84240000E+02 !Ref: Burke et al., 2013 - https://doi.org/10.1016/j.proci.2012.05.041, UF 3 (theory), in good agreement with Hong 2013
 DUPLICATE
HO2+OH=H2O+O2                          2.63410837E+09    1.24000000E+00   -1.30758000E+03 !Ref: Burke et al., 2013 - https://doi.org/10.1016/j.proci.2012.05.041, UF 3 (theory), in good agreement with Hong 2013
 DUPLICATE

HO2+HO2=H2O2+O2                        3.39347523E-02    4.12000000E+00   -4.96000000E+03 !Ref: Klippenstein et al., 2022 - https://doi.org/10.1016/j.combustflame.2021.111975, UF 3 (theory), 400 - 2000K
HO2+HO2=O2+OH+OH                       1.32770934E+18   -1.54000000E+00    8.54000000E+03 !Ref: Klippenstein et al., 2022 - https://doi.org/10.1016/j.combustflame.2021.111975, UF 3 (theory), 400 - 2000K

H2O2(+M)=OH+OH(+M)                     2.00000000E+12    9.00000000E-01    4.87490000E+04 !Ref: Troe, 2011 - https://doi.org/10.1016/j.combustflame.2010.08.013, UF 2 at T > 1000K, 500 - 1500K
     LOW  /  1.96386809E+24  -2.29293580E+00  4.87434050E+04 /
     TROE/   4.30000000E-01  1.00000000E-30  1.00000000E+30 /
H2/ 2.000/ H2O/ 9.000/ H2O2/ 9.900/ HE/ 0.880/ N2/ 1.500/ O2/ 1.500/

H2O2+H=H2O+OH                          1.59160022E+13    0.00000000E+00    3.97000000E+03 !Ref: Tsang and Hampson, 1986 - https://doi.org/10.1063/1.555759, UF 5 at T > 1000K, 300 - 2500K
H2O2+H=H2+HO2                          2.12176177E+10    1.00000000E+00    6.00000000E+03 !Ref: Ellingson et al., 2007 - https://doi.org/10.1021/jp077379x, UF 3 (theory), 250 - 2400K, the fit is not great >1000K compared to the 2 k values provided in the table.

H2O2+O<=>HO2+OH                        9.55000000E+06    2.00000000E+00    3.97000000E+03 !Ref: Tsang and Hampson, 1986 - https://doi.org/10.1063/1.555759, UF 3

H2O2+OH<=>H2O+HO2                      1.69300044E+12    0.00000000E+00    3.18000000E+02 !Ref: Hong et al., 2010 - https://doi.org/10.1021/jp100204z, UF 1.17, the expression is on page 8 at the very end
 DUPLICATE
H2O2+OH<=>H2O+HO2                      7.43104419E+13    0.00000000E+00    7.26900000E+03 !Ref: Hong et al., 2010 - https://doi.org/10.1021/jp100204z, UF 1.17, the expression is on page 8 at the very end
 DUPLICATE

!Trimolecular
H+O2+H=H2+O2                           2.25769247E+23   -1.83500000E+00    8.00000000E+02 !Ref: Burke & Klippenstein, 2017 - https://doi.org/10.1038/nchem.2842, UF 3 (theory)
H+H+O2=OH+OH                           4.00000000E+22   -1.83500000E+00    8.00000000E+02 !Ref: Burke & Klippenstein, 2017 - https://doi.org/10.1038/nchem.2842, UF 3 (theory)
H+O+O2=OH+O2                           7.35000000E+22   -1.83500000E+00    8.00000000E+02 !Ref: Burke & Klippenstein, 2017 - https://doi.org/10.1038/nchem.2842, UF 3 (theory)
H+OH+O2=H2O+O2                         2.56000000E+22   -1.83500000E+00    8.00000000E+02 !Ref: Burke & Klippenstein, 2017 - https://doi.org/10.1038/nchem.2842, UF 3 (theory)

!------------------------------------------------------------------------------------------------------------------------------------------------------------------------------
! Excited OH
!------------------------------------------------------------------------------------------------------------------------------------------------------------------------------
H+O+M=OHV+M                            1.50000000E+13    0.00000000E+00    5.97514340E+03 !Ref: Kathrotia et al., 2010 - https://doi.org/10.1016/j.combustflame.2010.04.003, UF 1.27, 1400 - 3300K
AR/ 0.350/ H2O/ 6.500/ N2/ 0.400/ O2/ 0.400/

OHV=OH                                 1.45000000E+06    0.00000000E+00    0.00000000E+00 !Ref: Kathrotia et al., 2010 - https://doi.org/10.1016/j.combustflame.2010.04.003, originally from Smith et al., 2002 - https://doi.org/10.1016/S0010-2180(02)00399-1

OHV+O2=O2+OH                           9.54545454E+11    5.00000000E-01   -4.82000000E+02 !Ref: Konnov, 2015 - https://doi.org/10.1016/j.combustflame.2015.07.014, UF 1.5, 300 - 2000K - ratio 40/48 kept, O3 assigned according to ratio, (Tamura->Kathrotia->Konnov)
OHV+O2=HO2+O                           1.14772723E+12    5.00000000E-01   -4.82000000E+02 !Ref: Konnov, 2015 - https://doi.org/10.1016/j.combustflame.2015.07.014, UF 1.5, 300 - 2000K - ratio 48/40 kept, O3 assigned according to ratio, (Tamura->Kathrotia->Konnov)

OHV+O=OH+O                             1.50000000E+12    5.00000000E-01    0.00000000E+00 !Ref: Hidaka et al., 1982 - https://doi.org/10.1021/j100397a043

OHV+OH=OH+OH                           6.01000000E+12    5.00000000E-01   -7.64818356E+02 !Ref: Kathrotia et al., 2010 - https://doi.org/10.1016/j.combustflame.2010.04.003, originally from Tamura et al., 1998 - https://doi.org/10.1016/S0010-2180(97)00324-6

OHV+H2=H2+OH                           3.54000000E+11    5.00000000E-01   -4.44000000E+02 !Ref: Konnov, 2015 - https://doi.org/10.1016/j.combustflame.2015.07.014, UF 1.5, 300 - 2000K - branching ratio 12/88 (Tamura->Kathrotia->Konnov)
OHV+H2=H2O+H                           2.47708712E+12    5.00000000E-01   -4.44000000E+02 !Ref: Konnov, 2015 - https://doi.org/10.1016/j.combustflame.2015.07.014, UF 1.5, 300 - 2000K - branching ratio 88/12 (Tamura->Kathrotia->Konnov)

OHV+H2O=H2O+OH                         2.96000000E+12    5.00000000E-01   -8.60420650E+02 !Ref: Konnov, 2015 - https://doi.org/10.1016/j.combustflame.2015.07.014, UF 1.5, 300 - 2000K - branching ratio 50/50 (Tamura->Kathrotia->Konnov)
OHV+H2O=H2O2+H                         2.96000000E+12    5.00000000E-01   -8.60420650E+02 !Ref: Konnov, 2015 - https://doi.org/10.1016/j.combustflame.2015.07.014, UF 1.5, 300 - 2000K - branching ratio 50/50 (Tamura->Kathrotia->Konnov)

OHV+H=H+OH                             1.31000000E+12    5.00000000E-01   -1.67304015E+02 !Ref: Kathrotia et al., 2010 - https://doi.org/10.1016/j.combustflame.2010.04.003, originally from Tamura et al., 1998 - https://doi.org/10.1016/S0010-2180(97)00324-6

OHV+N2=N2+OH                           1.08000000E+11    5.00000000E-01   -1.24282983E+03 !Ref: Kathrotia et al., 2010 - https://doi.org/10.1016/j.combustflame.2010.04.003, originally from Tamura et al., 1998 - https://doi.org/10.1016/S0010-2180(97)00324-6

OHV+AR=OH+AR                           1.30000000E+10    5.00000000E-01   -1.99000000E+02 !Ref: Mulvihill & Petersen, 2020 - https://doi.org/10.1016/j.combustflame.2019.11.010, 1448 - 2003K

!------------------------------------------------------------------------------------------------------------------------------------------------------------------------------
! Excited OH with NOx and NH3
!------------------------------------------------------------------------------------------------------------------------------------------------------------------------------
OHV+NO=OH+NO                           6.00000000E+12    5.00000000E-01   -3.97000000E+02 !Ref: Mulvihill & Petersen, 2020 - https://doi.org/10.1016/j.combustflame.2019.11.010, 1448 - 2003K

OHV+NO2=OH+NO2                         6.00000000E+12    5.00000000E-01   -5.56000000E+02 !Ref: Mulvihill & Petersen, 2020 - https://doi.org/10.1016/j.combustflame.2019.11.010, 1448 - 2003K

NO2+H=NO+OHV                           7.00000000E+13    0.00000000E+00    5.50000000E+04 !Ref: Mulvihill & Petersen, 2020 - https://doi.org/10.1016/j.combustflame.2019.11.010, 1448 - 2003K

H+N2O<=>N2+OHV                         1.60000000E+14    0.00000000E+00    5.03000000E+04 !Ref: Hidaka et al., 1985 - https://doi.org/10.1021/j100269a004, UF 1.625

N2O+OHV<=>N2O+OH                       6.00000000E+12    5.00000000E-01   -5.56000000E+02 !Ref: Mulvihill & Petersen, 2020 - https://doi.org/10.1016/j.combustflame.2019.11.010, 1448 - 2003K

NH3+OHV<=>NH3+OH                       9.00000000E+12    5.00000000E-01   -5.96000000E+02 !Ref: Mulvihill & Petersen, 2020 - https://doi.org/10.1016/j.combustflame.2019.11.010, 1448 - 2003K


!------------------------------------------------------------------------------------------------------------------------------------------------------------------------------
! Start of O-H-N system
!------------------------------------------------------------------------------------------------------------------------------------------------------------------------------
! Thermal NOx
!------------------------------------------------------------------------------------------------------------------------------------------------------------------------------
N+OH=NO+H                              1.08000000E+14   -2.0000000E-01     0.00000000E+00 !Ref: Baulch et al., 2005 - https://doi.org/10.1063/1.1748524, UF 2.5 at 2500 K, 1.3 at 300K

N+O2=NO+O                              5.84000000E+09    1.01000000E+00    6.20000000E+03 !Ref: Baulch et al., 2005 - https://doi.org/10.1063/1.1748524, UF 1.6 at 280-1500K, 3.16 at 5000K

NO+N=N2+O                              9.40000000E+12    1.40000000E-01    0.00000000E+00 !Ref: Abian et al., 2015 - https://doi.org/10.1002/kin.20929, UF 2 (theory + experiment), 250 - 3000K

N+O+M=NO+M                             7.60000000E+14   -1.00000000E-01   -1.77000000E+03 !Ref: In other mechs to Cohen, 1991 but not from there. Unknown origin.
H2O/ 16.25/


!------------------------------------------------------------------------------------------------------------------------------------------------------------------------------
! N2O
!------------------------------------------------------------------------------------------------------------------------------------------------------------------------------

N2O(+M)=N2+O(+M)                       9.90000000E+10     0.0000000E+00    5.79010000E+04 !Ref: Baulch et al., 2005 - https://doi.org/10.1063/1.1748524, UF 3.16, 1000 - 3000K
     LOW  /  6.02000000E+14   0.00000000E+00  5.74440000E+04 /                            !UF 2, 1000 - 3000K
H2O/ 12.000/ N2/ 1.700/ O2/ 1.400/ 

N2O+H=N2+OH                            6.40000000E+07    1.84000000E+00    1.35000000E+04 !Ref: Klippenstein et al., 2011 - https://doi.org/10.1016/j.combustflame.2010.12.013, UF 3 (theory), 300 - 2000K

N2O+O=NO+NO                            9.15000000E+13    0.00000000E+00    2.77000000E+04 !Ref: Meagher & Anderson, 2000 - https://doi.org/10.1021/jp994471n, UF 2 (not included), 1075 - 3340K
N2O+O=N2+O2                            3.69000000E+12    0.00000000E+00    1.59360000E+04 !Ref: Meagher & Anderson, 2000 - https://doi.org/10.1021/jp994471n, UF 2 (not included), 1075 - 3340K

N2O+N=N2+NO                            1.00000000E+13    0.00000000E+00    1.99000000E+04 !Ref: Unknown + expression seems a bit arbitrary? Carried over from XJTUNO-2021

N2O+OH=HNO+NO                          1.18000000E-04    4.33000000E+00    2.51000000E+04 !Ref: Mebel et al., 1996 - https://doi.org/10.1002/(SICI)1097-4601(1996)28:9%3C693::AID-KIN8%3E3.0.CO;2-Q, UF 3 (theory). Rate coeff on the order of 10^9 in both directions
N2O+OH=N2+HO2                          1.30000000E-02    4.72000000E+00    3.66000000E+04 !Ref: Mebel et al., 1996 - https://doi.org/10.1002/(SICI)1097-4601(1996)28:9%3C693::AID-KIN8%3E3.0.CO;2-Q, UF 3 (theory), 1000 - 5000K

N2O+H2=N2+H2O                          7.00000000E+12    0.00000000E+00    3.25000000E+04 !Ref: Mulvihill et al., 2018 - https://doi.org/10.1016/j.combustflame.2018.07.003, UF 2 from paper, this rate expression should be seen as the upper limit, 1414 - 1811K.

N2O+NO=N2+NO2                          5.26000000E+05    2.23000000E+00    4.62810000E+04 !Ref: Mebel et al., 1996 - https://doi.org/10.1002/(SICI)1097-4601(1996)28:9%3C693::AID-KIN8%3E3.0.CO;2-Q, UF 3 (theory), 1000 - 5000K

!------------------------------------------------------------------------------------------------------------------------------------------------------------------------------
! NO
!------------------------------------------------------------------------------------------------------------------------------------------------------------------------------

NO+HO2=NO2+OH                          1.97981087E+12    0.00000000E+00   -4.97000000E+02 !Ref: Baulch et al., 2005 - https://doi.org/10.1063/1.1748524, UF 1.413, 200 - 2000K

NO+O(+M)<=>NO2(+M)                     1.30000000E+15   -7.50000000E-01    0.00000000E+00 !Ref: Tsang and Herron, 1991 - https://doi.org/10.1063/1.555890, UF 3.
     LOW  /  4.10962627E+24  -2.87000000E+00  1.55100000E+03 /                            !UF 3 at 2500 K, 1.3 at 300 K
     TROE/   9.62000000E-01  1.00000000E+01  7.96200000E+03 /
AR/ 0.600/ H2O/ 10.000/ N2O/ 4.400/ NO/ 1.800/ NO2/ 6.200/ O2/ 0.800/

NO+OH=HONO                             9.27000000E+23   -4.17000000E+00    1.62100000E+03 !Ref: Chen et al., 2019 - https://doi.org/10.1039/C8RE00201K, UF 3 (theory)
PLOG / 1.0000000E-02                   1.50600000E+22   -4.24000000E+00    8.98900000E+02 / 
PLOG / 1.0000000E-01                   1.59300000E+23   -4.24000000E+00    1.18400000E+03 / 
PLOG / 3.1600000E-01                   4.14000000E+23   -4.22000000E+00    1.37600000E+03 / 
PLOG / 1.0000000E+00                   9.27000000E+23   -4.17000000E+00    1.62100000E+03 / 
PLOG / 3.1600000E+00                   1.63500000E+24   -4.09000000E+00    1.91100000E+03 / 
PLOG / 1.0000000E+01                   1.90500000E+24   -3.97000000E+00    2.22200000E+03 / 
PLOG / 3.1600000E+01                   1.10400000E+24   -3.75000000E+00    2.50100000E+03 / 
PLOG / 1.0000000E+02                   2.18700000E+23   -3.41000000E+00    2.66000000E+03 / 

NO+OH=HNO2                             1.43000000E+18   -3.03000000E+00    3.89900000E+03 !Ref: Chen et al., 2019 - https://doi.org/10.1039/C8RE00201K, UF 3 (theory)
PLOG / 1.00000000E-02                  3.16000000E+18   -3.74000000E+00    1.40500000E+03 /
PLOG / 1.00000000E-01                  3.03000000E+18   -3.43000000E+00    2.61800000E+03 /
PLOG / 3.16000000E-01                  2.23000000E+18   -3.24000000E+00    3.24800000E+03 /
PLOG / 1.00000000E+00                  1.43000000E+18   -3.03000000E+00    3.89900000E+03 /
PLOG / 3.16000000E+00                  6.91000000E+17   -2.79000000E+00    4.53500000E+03 /
PLOG / 1.00000000E+01                  2.04000000E+17   -2.49000000E+00    5.12500000E+03 /
PLOG / 3.16000000E+01                  3.07000000E+16   -2.12000000E+00    5.64800000E+03 /
PLOG / 1.00000000E+02                  1.95000000E+15   -1.64000000E+00    6.09900000E+03 /

NO+HO2+M=HNO3+M                        1.50000000E+24   -3.50000000E+00    2.20000000E+03 !Ref: Konnov v0.5 -> v0.6, 2009 - https://doi.org/10.1016/j.combustflame.2009.03.016, UF 2 assigned



NO+NH3=HNO+NH2                         1.46000000E+03    3.12000000E+00    5.44933000E+04 !Ref: Xu & Lin, 2009 - https://doi.org/10.1002/kin.20453, UF 3 (theory), 300 - 3000K

!------------------------------------------------------------------------------------------------------------------------------------------------------------------------------
! NO2
!------------------------------------------------------------------------------------------------------------------------------------------------------------------------------

NO2+NH3=HONO+NH2                       4.23561900E-10    6.48000000E+00    2.70076482E+04 !Ref: Xu & Lin, 2009 - https://doi.org/10.1002/kin.20445, UF 3 (theory). Sum of cis and trans
 DUPLICATE
NO2+NH3=HONO+NH2                       2.68375800E-01    4.02000000E+00    2.32504780E+04 !Ref: Xu & Lin, 2009 - https://doi.org/10.1002/kin.20445, UF 3 (theory). Sum of cis and trans
 DUPLICATE

NO2+H=NO+OH                            2.96933357E+11    8.40000000E-01   -1.05800000E+03 !Ref: Chen et al., 2019 - https://doi.org/10.1039/C8RE00201K, UF 3 (theory)

NO2+O=NO+O2                            2.40175329E+15   -1.03500000E+00    5.39914000E+01 !Ref: Li et al., 2021 - DOI: 10.1039/d0cp05131d, UF 3, 221 - 3000K. Other mechs have adopted 2x A values.
 DUPLICATE
NO2+O=NO+O2                            1.95877912E+16   -8.61000000E-01    1.21640710E+04 !Ref: Li et al., 2021 - DOI: 10.1039/d0cp05131d, UF 3, 221 - 3000K. Other mechs have adopted 2x A values.
 DUPLICATE

NO2+O(+M)=NO3(+M)                      3.50000000E+12    2.40000000E-01    0.00000000E+00 !Ref: Hahn et al., 2000 - https://doi.org/10.1039/B005756H, UF 1.1 at 300-400K
     LOW  /  2.50000000E+20  -1.50000000E+00  0.00000000E+00 /                            !UF 1.23 at 300-400K, UF 2 assigned for higher temps.
     TROE/   7.10000000E-01  1.00000000E-30  1.70000000E+03  1.00000000E+30 /

NO2+N=N2O+O                            3.50000000E+12    0.00000000E+00    4.37000000E+02 !Ref: DeMore et al., 1997 - https://jpldataeval.jpl.nasa.gov/pdf/Atmos97_Anotated.pdf, UF 1.5 in report at low temp

NO2+OH(+M)=HNO3(+M)                    1.63000000E+13    0.00000000E+00    0.00000000E+00 !Ref: Troe, 2012 - https://doi.org/10.1021/jp212095n
     LOW  /  3.13000000E+25  -3.00000000E+00  0.00000000E+00 /
     TROE/   4.10000000E-01  1.00000000E-30  1.00000000E+30  1.00000000E+30 /


NO2+HO2=HONO+O2                        1.90000000E+00    3.32000000E+00    3.04400000E+03 !Ref: Rasmussen et al., 2008 - https://doi.org/10.1002/kin.20327, UF 3 (theory)

NO2+HO2=HNO2+O2                        1.90000000E+01    3.26000000E+00    4.98300000E+03 !Ref: Rasmussen et al., 2008 - https://doi.org/10.1002/kin.20327, UF 3 (theory)

NO2+NO2=NO+NO+O2                       4.50000000E+12    0.00000000E+00    2.76000000E+04 !Ref: Park et al., 1998 - https://doi.org/10.1021/jp983139t, UF 1.03, 600 - 1450K

NO2+NO2=NO3+NO                         1.00000000E+13    0.00000000E+00    2.58000000E+04 !Ref: Rohrig et al., 1996 - https://doi.org/10.1002/(SICI)1097-4601(1997)29:7%3C483::AID-KIN2%3E3.0.CO;2-Q, UF 2, 1350 - 2100K

!------------------------------------------------------------------------------------------------------------------------------------------------------------------------------
! NO3
!------------------------------------------------------------------------------------------------------------------------------------------------------------------------------

NO3+H=NO2+OH                           5.66000000E+13    0.00000000E+00    0.00000000E+00 !Ref: Becker et al., 1992 - https://doi.org/10.1002/bbpc.19920960608, UF 3 assigned, 1.21 in paper at 298K

NO3+O=NO2+O2                           1.02400000E+13    0.00000000E+00    0.00000000E+00 !Ref: Atkinson et al., 2004 - https://doi.org/10.5194/acp-4-1461-2004, UF 2 at 300K

NO3+OH=NO2+HO2                         1.20000000E+13    0.00000000E+00    0.00000000E+00 !Ref: Atkinson et al., 2004 - https://doi.org/10.5194/acp-4-1461-2004, UF 2 at 300K

NO3+HO2=NO2+O2+OH                      1.51000000E+12    0.00000000E+00    0.00000000E+00 !Ref: Becker et al., 1992 - https://doi.org/10.1002/bbpc.19920960608, UF 3 assigned, 1.28 in paper at 298K
NO3+HO2=HNO3+O2                        1.14000000E+12    0.00000000E+00    0.00000000E+00 !Ref: Becker et al., 1992 - https://doi.org/10.1002/bbpc.19920960608, UF 3 assigned, 1.42 in paper at 298K

NO3+NO2=NO+O2+NO2                      2.71000000E+10    0.00000000E+00    2.50000000E+03 !Ref: DeMore et al., 1997 - https://jpldataeval.jpl.nasa.gov/pdf/Atmos97_Anotated.pdf, UF 2 in report

NO3+NO3=NO2+NO2+O2                     5.12000000E+11    0.00000000E+00    4.87000000E+03 !Ref: Johnston, Cantrell, Calvert, 1986 - https://doi.org/10.1029/JD091iD04p05159, UF 1.67 at room temp, assign 3.

!------------------------------------------------------------------------------------------------------------------------------------------------------------------------------
! NH3
!------------------------------------------------------------------------------------------------------------------------------------------------------------------------------
NH3=NH2+H                              3.49700000E+30   -5.22400000E+00    1.11163300E+05 !Ref: Stagni et al., 2020 - https://doi.org/10.1039/C9RE00429G, UF 3 (theory), 800 - 2500K
PLOG / 1.00000000E-01                  7.23000000E+29   -5.31600000E+00    1.10862400E+05 /
PLOG / 1.00000000E+00                  3.49700000E+30   -5.22400000E+00    1.11163300E+05 /
PLOG / 1.00000000E+01                  1.97500000E+31   -5.15500000E+00    1.11887800E+05 /
PLOG / 1.00000000E+02                  2.68900000E+31   -4.92000000E+00    1.12778700E+05 /

NH3+H=NH2+H2                           1.96300000E+04    2.85400000E+00    8.52020000E+03 !Ref: Stagni et al., 2020 - https://doi.org/10.1039/C9RE00429G, UF 3 (theory), 300 - 2500K

NH3+OH=NH2+H2O                         1.55900000E+05    2.37200000E+00    1.18900000E+02 !Ref: Stagni et al., 2020 - https://doi.org/10.1039/C9RE00429G, UF 3 (theory), 300 - 2500K

NH3+O=NH2+OH                           4.43000000E+02    3.18000000E+00    6.73990000E+03 !Ref: Stagni et al., 2020 - https://doi.org/10.1039/C9RE00429G, UF 3 (theory), 300 - 2500K

NH3+HO2=NH2+H2O2                       1.17300000E+00    3.83900000E+00    1.72600000E+04 !Ref: Stagni et al., 2020 - https://doi.org/10.1039/C9RE00429G, UF 3 (theory), 300 - 2500K

!------------------------------------------------------------------------------------------------------------------------------------------------------------------------------
! NH2
!------------------------------------------------------------------------------------------------------------------------------------------------------------------------------

NH2+H=NH+H2                            1.09000000E+05    2.59000000E+00    1.81000000E+03 !Ref: Li & Sarathy, 2020 - https://doi.org/10.1016/j.ijhydene.2020.06.083, UF 3 (theory), 298 - 2000K

NH2+O=HNO+H                            2.78000000E+13   -6.50000000E-02   -1.88000000E+02 !Ref: Klippenstein et al., 2023 - https://doi.org/10.1021/acs.jpca.3c05181, UF 3 (thoery), 300 - 2500K
NH2+O=NH+OH                            3.09000000E+03    2.84000000E+00   -2.78000000E+03 !Ref: Klippenstein et al., 2023 - https://doi.org/10.1021/acs.jpca.3c05181, UF 3 (thoery), 300 - 2500K
NH2+O=H2+NO                            2.38000000E+12    1.12000000E-01   -3.47000000E+02 !Ref: Klippenstein et al., 2023 - https://doi.org/10.1021/acs.jpca.3c05181, UF 3 (thoery), 300 - 2500K

NH2+O2=HNO+OH                          2.90000000E-02    3.76400000E+00    1.81850000E+04 !Ref: Klippenstein et al., 2011 - https://doi.org/10.1016/j.combustflame.2010.12.013, UF 4, 500 - 2500K
NH2+O2=H2NO+O                          2.60000000E+11    4.87200000E-01    2.90500000E+04 !Ref: Klippenstein et al., 2011 - https://doi.org/10.1016/j.combustflame.2010.12.013, UF 2, 500 - 2500K

NH2+HO2=H2NO+OH                        2.19000000E+09    7.91000000E-01   -1.42800000E+03 !Ref: Klippenstein & Glarborg, 2022 - https://doi.org/10.1016/j.combustflame.2021.111787, UF 3, 300 - 2500K
NH2+HO2=HNO+H2O                        1.02000000E+12    1.66000000E-01   -9.38000000E+02 !Ref: Klippenstein & Glarborg, 2022 - https://doi.org/10.1016/j.combustflame.2021.111787, UF 3, 300 - 2500K
NH2+HO2=NH3+O2                         6.04000000E+18   -1.91000000E+00    3.06000000E+02 !Ref: Klippenstein & Glarborg, 2022 - https://doi.org/10.1016/j.combustflame.2021.111787, UF 3, 300 - 2500K
 DUPLICATE
NH2+HO2=NH3+O2                         5.91000000E+07    1.59000000E+00   -1.37300000E+03 !Ref: Klippenstein & Glarborg, 2022 - https://doi.org/10.1016/j.combustflame.2021.111787, UF 3, 300 - 2500K
 DUPLICATE 	

NH2+NH=N2H2+H                          4.30000000E+14   -2.72000000E-01   -7.70000000E+01 !Ref: Klippenstein et al., 2009 - https://doi.org/10.1021/jp905454k, UF 3, 200 - 2500K